Git is a version control control system.
Git is free software distributed under the GPL.
Insert a new line.
new line.
Git tracks changes of files.
add new context.
second add new context.
